LTspice 24.0.12 for Windows
Circuit: * C:\Users\kbur696\OneDrive - The University of Auckland\Documents\GitHub\ECSE_DESIGN\Ariela\ECSE_DESIGN_LTSPICE.asc
Start Time: Wed Sep  3 13:19:01 2025
Warning: Multiple definitions of model "2scr375p" Type: BJT
Warning: Multiple definitions of model "bc857b" Type: BJT
Warning: Multiple definitions of model "bc847c" Type: BJT
Warning: Multiple definitions of model "bc847b" Type: BJT
solver = Normal
Maximum thread count: 24
tnom = 27
temp = 27
method = modified trap
WARNING: Less than two connections to node vac.  This node is used by d1.
Direct Newton iteration for .op point succeeded.
Total elapsed time: 0.133 seconds.

